4
-1.8928778501222493e+02 frame 0   xyz file generated by TeraChem
     C     1.9627758277    1.7101129149   -2.8399612407
     H     1.8676418124    2.6396154123   -2.2229271858
     O     1.7849976405    1.8513298267   -4.0739199114
     O     2.2339847365    0.6597421073   -2.2097914347
4
-1.8928787608528788e+02 frame 1   xyz file generated by TeraChem
     C     1.9642765401    1.7002649810   -2.8422223403
     H     1.8657325913    2.6441563884   -2.2283546912
     O     1.7829997272    1.8623304984   -4.0760414332
     O     2.2363911590    0.6540483944   -2.1999813091
4
-1.8928790444964264e+02 frame 2   xyz file generated by TeraChem
     C     1.9630880354    1.7049951190   -2.8469177041
     H     1.8671730178    2.6431330928   -2.2140462630
     O     1.7838508495    1.8522242134   -4.0835469138
     O     2.2352881153    0.6604478365   -2.2020888937
4
-1.8928793422632080e+02 frame 3   xyz file generated by TeraChem
     C     1.9627251922    1.7039320721   -2.8437496045
     H     1.8661231560    2.6449183361   -2.2204572875
     O     1.7843841463    1.8542094443   -4.0784686921
     O     2.2361675243    0.6577404084   -2.2039241899
4
-1.8928792418278999e+02 frame 4   xyz file generated by TeraChem
     C     1.9673211169    1.7042935169   -2.8444645308
     H     1.8641831280    2.6443563762   -2.2209990339
     O     1.7828223960    1.8543879254   -4.0782757778
     O     2.2350733783    0.6577624431   -2.2028604339
4
-1.8928793351465254e+02 frame 5   xyz file generated by TeraChem
     C     1.9649699788    1.7039644278   -2.8443320025
     H     1.8649481995    2.6444436903   -2.2206919342
     O     1.7836036834    1.8543109889   -4.0786722618
     O     2.2358781576    0.6580811547   -2.2029035782
4
-1.8928793528045432e+02 frame 6   xyz file generated by TeraChem
     C     1.9634550056    1.7037226298   -2.8442003218
     H     1.8649483921    2.6446615685   -2.2207475612
     O     1.7842026155    1.8539666087   -4.0788487292
     O     2.2367940066    0.6584494548   -2.2028031647
4
-1.8928793532915697e+02 frame 7   xyz file generated by TeraChem
     C     1.9634337132    1.7037097169   -2.8442242065
     H     1.8644724032    2.6447020896   -2.2208974906
     O     1.7842901444    1.8536787386   -4.0789140289
     O     2.2372037603    0.6587097156   -2.2025640505
