4
-1.8928938405155731e+02 frame 0   xyz file generated by TeraChem
     C     1.9627758277    1.7101129149   -2.8399612407
     H     1.8676418124    2.6396154123   -2.2229271858
     O     1.7849976405    1.8513298267   -4.0739199114
     O     2.2339847365    0.6597421073   -2.2097914347
4
-1.8928947302583424e+02 frame 1   xyz file generated by TeraChem
     C     1.9642129690    1.7006019921   -2.8421546863
     H     1.8657652317    2.6441486923   -2.2280678547
     O     1.7830789074    1.8618960390   -4.0761171812
     O     2.2363429094    0.6541535397   -2.2002600494
4
-1.8928949795065526e+02 frame 2   xyz file generated by TeraChem
     C     1.9630975621    1.7052363300   -2.8467145452
     H     1.8671226517    2.6431970620   -2.2141446260
     O     1.7839119954    1.8520012513   -4.0834378093
     O     2.2352678088    0.6603656216   -2.2023027914
4
-1.8928952688369202e+02 frame 3   xyz file generated by TeraChem
     C     1.9626313438    1.7041185304   -2.8436176906
     H     1.8661311122    2.6448906386   -2.2204976624
     O     1.7844655138    1.8540421845   -4.0784662050
     O     2.2361720484    0.6577489126   -2.2040182153
4
-1.8928951454458775e+02 frame 4   xyz file generated by TeraChem
     C     1.9676826248    1.7045523791   -2.8443147908
     H     1.8640080848    2.6443544401   -2.2211650576
     O     1.7827761338    1.8542065373   -4.0781474813
     O     2.2349331743    0.6576869096   -2.2029724453
4
-1.8928952577593751e+02 frame 5   xyz file generated by TeraChem
     C     1.9651227073    1.7042183046   -2.8441800720
     H     1.8648522604    2.6444487383   -2.2207781320
     O     1.7836281914    1.8540889040   -4.0786089552
     O     2.2357968586    0.6580443194   -2.2030326158
4
-1.8928952795200669e+02 frame 6   xyz file generated by TeraChem
     C     1.9634346751    1.7039283616   -2.8440602768
     H     1.8649015103    2.6446523364   -2.2208274632
     O     1.7842936294    1.8537592779   -4.0788369122
     O     2.2367702040    0.6584602837   -2.2028751244
4
-1.8928952800417454e+02 frame 7   xyz file generated by TeraChem
     C     1.9634120790    1.7039295112   -2.8440758582
     H     1.8644175537    2.6447168365   -2.2209744579
     O     1.7843997794    1.8534357827   -4.0788972658
     O     2.2371706070    0.6587181296   -2.2026521959
