3
-1.8858516709351321e+02 frame 0   xyz file generated by TeraChem
     O    -0.9988308893    9.0764992492    4.0947450378
     C    -2.1113334451    9.4032000298    4.1360669025
     O    -3.2238356602    9.7299007210    4.1773880597
3
-1.8858547977847610e+02 frame 1   xyz file generated by TeraChem
     O    -0.9911882414    9.0741209678    4.0942007905
     C    -2.1113332646    9.4032002384    4.1360667413
     O    -3.2314784895    9.7322787939    4.1779324682
3
-1.8858548166713990e+02 frame 2   xyz file generated by TeraChem
     O    -0.9905541016    9.0739944191    4.0938438919
     C    -2.1113333236    9.4032001682    4.1360667141
     O    -3.2321125719    9.7324054128    4.1782893940
3
-1.8858548167321868e+02 frame 3   xyz file generated by TeraChem
     O    -0.9905319762    9.0740299128    4.0935052684
     C    -2.1113333248    9.4032001480    4.1360666937
     O    -3.2321346966    9.7323699392    4.1786280379
